casecineldi124.m
function mpc = casecineldi124

%% MATPOWER Case Format : Version 2
mpc.version = '2';

%%-----  Power Flow Data  -----%%
%% system MVA base
mpc.baseMVA = 10;
%% bus data
%	bus_i	type	Pd	Qd	Gs	Bs	area	Vm	Va	baseKV	zone	Vmax	Vmin
mpc.bus = [  
    1	3	0	 0	0	0	0	1	0	22	0	1.2	0.9;
    2	1	0.102573285	0.033712762	0	0	0	0.9984	-0.0694	22	0	1.2	0.9;
    3	1	0	0	0	0	0	0.9974	-0.1119	22	0	1.2	0.9;
    4	1	0	0	0	0	0	0.9958	-0.1505	22	0	1.2	0.9;
    5	1	0	0	0	0	0	0.9954	-0.1602	22	0	1.2	0.9;
    6	1	0.312282822	0.102637995	0	0	0	0.9957	-0.151	22	0	1.2	0.9;
    7	1	0	0	0	0	0	0.9926	-0.1981	22	0	1.2	0.9;
    8	1	0.070066843	0.023028869	0	0	0	0.9954	-0.1602	22	0	1.2	0.9;
    9	1	0	0	0	0	0	0.9911	-0.219	22	0	1.2	0.9;
    10	1	0.077479408	0.025465157	0	0	0	0.9926	-0.1981	22	0	1.2	0.9;
    11	1	0.054436733	0.017891721	0	0	0	0.9926	-0.1981	22	0	1.2	0.9;
    12	1	0	0	0	0	0	0.9866	-0.2819	22	0	1.2	0.9;
    13	1	0.069716613	0.022913759	0	0	0	0.9911	-0.2191	22	0	1.2	0.9;
    14	1	0.044766026	0.01471325	0	0	0	0.9911	-0.2191	22	0	1.2	0.9;
    15	1	0.034603003	0.011372969	0	0	0	0.9911	-0.219	22	0	1.2	0.9;
    16	1	0	0	0	0	0	0.9866	-0.2821	22	0	1.2	0.9;
    17	1	0.083955294	0.027593586	0	0	0	0.9866	-0.2821	22	0	1.2	0.9;
    18	1	0.059472768	0.019546915	0	0	0	0.9864	-0.2832	22	0	1.2	0.9;
    19	1	0	0	0	0	0	0.9863	-0.284	22	0	1.2	0.9;
    20	1	0.098526154	0.032382591	0	0	0	0.9863	-0.284	22	0	1.2	0.9;
    21	1	0.016413906	0.005394758	0	0	0	0.9863	-0.284	22	0	1.2	0.9;
    22	1	0	0	0	0	0	0.9863	-0.284	22	0	1.2	0.9;
    23	1	0	0	0	0	0	0.9863	-0.2839	22	0	1.2	0.9;
    24	1	0	0	0	0	0	0.9862	-0.2836	22	0	1.2	0.9;
    25	1	0.014601533	0.004799086	0	0	0	0.9862	-0.2836	22	0	1.2	0.9;
    26	1	0	0	0	0	0	0.9831	-0.3307	22	0	1.2	0.9;
    27	1	0	0	0	0	0	0.9831	-0.3316	22	0	1.2	0.9;
    28	1	0.067753353	0.022268495	0	0	0	0.9831	-0.3316	22	0	1.2	0.9;
    29	1	0	0	0	0	0	0.9831	-0.3316	22	0	1.2	0.9;
    30	1	0	0	0	0	0	0.9831	-0.3315	22	0	1.2	0.9;
    31	1	0.116475606	0.038282037	0	0	0	0.9831	-0.3314	22	0	1.2	0.9;
    32	1	0.232441763	0.076396634	0	0	0	0.983	-0.3325	22	0	1.2	0.9;
    33	1	0	0	0	0	0	0.9801	-0.3735	22	0	1.2	0.9;
    34	1	0.104628467	0.034388238	0	0	0	0.98	-0.3742	22	0	1.2	0.9;
    35	1	0	0	0	0	0	0.98	-0.3742	22	0	1.2	0.9;
    36	1	0	0	0	0	0	0.98	-0.3742	22	0	1.2	0.9;
    37	1	0	0	0	0	0	0.978	-0.4039	22	0	1.2	0.9;
    38	1	0	0	0	0	0	0.9779	-0.404	22	0	1.2	0.9;
    39	1	0.058684029	0.01928768	0	0	0	0.9779	-0.404	22	0	1.2	0.9;
    40	1	0.057927814	0.019039135	0	0	0	0.9735	-0.4672	22	0	1.2	0.9;
    41	1	0.027772815	0.009128091	0	0	0	0.9735	-0.4671	22	0	1.2	0.9;
    42	1	0	0	0	0	0	0.9683	-0.5423	22	0	1.2	0.9;
    43	1	0	0	0	0	0	0.9683	-0.5425	22	0	1.2	0.9;
    44	1	0.031022705	0.010196233	0	0	0	0.9663	-0.5715	22	0	1.2	0.9;
    45	1	0	0	0	0	0	0.966	-0.5765	22	0	1.2	0.9;
    46	1	0.291088254	0.095671976	0	0	0	0.9635	-0.612	22	0	1.2	0.9;
    47	1	0.135757959	0.044619568	0	0	0	0.9596	-0.6693	22	0	1.2	0.9;
    48	1	0	0	0	0	0	0.9593	-0.6735	22	0	1.2	0.9;
    49	1	0.359524213	0.118164823	0	0	0	0.9594	-0.6732	22	0	1.2	0.9;
    50	1	0	0	0	0	0	0.9593	-0.6729	22	0	1.2	0.9;
    51	1	0.074594722	0.024517047	0	0	0	0.9593	-0.6729	22	0	1.2	0.9;
    52	1	0	0	0	0	0	0.9594	-0.6732	22	0	1.2	0.9;
    53	1	0	0	0	0	0	0.959	-0.6732	22	0	1.2	0.9;
    54	1	0	0	0	0	0	0.959	-0.6756	22	0	1.2	0.9;
    55	1	0.315686649	0.103756731	0	0	0	0.9589	-0.6777	22	0	1.2	0.9;
    56	1	0	0	0	0	0	0.9589	-0.6777	22	0	1.2	0.9;
    57	1	0	0	0	0	0	0.9589	-0.6782	22	0	1.2	0.9;
    58	1	0	0	0	0	0	0.9589	-0.6789	22	0	1.2	0.9;
    59	1	0	0	0	0	0	0.9589	-0.6789	22	0	1.2	0.9;
    60	1	0	0	0	0	0	0.9589	-0.6789	22	0	1.2	0.9;
    61	1	0	0	0	0	0	0.9589	-0.6789	22	0	1.2	0.9;
    62	1	0	0	0	0	0	0.9589	-0.6789	22	0	1.2	0.9;
    63	1	0	0	0	0	0	0.9589	-0.6727	22	0	1.2	0.9;
    64	1	0.147713084	0.048548859	0	0	0	0.9589	-0.6727	22	0	1.2	0.9;
    65	1	0	0	0	0	0	0.9589	-0.673	22	0	1.2	0.9;
    66	1	0.032251718	0.010600172	0	0	0	0.9589	-0.673	22	0	1.2	0.9;
    67	1	0.025001712	0.008217313	0	0	0	0.9584	-0.6876	22	0	1.2	0.9;
    68	1	0.00873254	0.002870124	0	0	0	0.9571	-0.7061	22	0	1.2	0.9;
    69	1	0.019565074	0.006430453	0	0	0	0.9555	-0.7303	22	0	1.2	0.9;
    70	1	0.085248477	0.028018617	0	0	0	0.9547	-0.7427	22	0	1.2	0.9;
    71	1	0	0	0	0	0	0.9541	-0.7505	22	0	1.2	0.9;
    72	1	0	0	0	0	0	0.9533	-0.7623	22	0	1.2	0.9;
    73	1	0.455683423	0.149769471	0	0	0	0.9533	-0.7624	22	0	1.2	0.9;
    74	1	0	0	0	0	0	0.9533	-0.7626	22	0	1.2	0.9;
    75	1	0	0	0	0	0	0.9527	-0.764	22	0	1.2	0.9;
    76	1	0	0	0	0	0	0.9527	-0.764	22	0	1.2	0.9;
    77	1	0	0	0	0	0	0.9527	-0.764	22	0	1.2	0.9;
    78	1	0	0	0	0	0	0.9527	-0.764	22	0	1.2	0.9;
    79	1	0	0	0	0	0	0.9522	-0.7653	22	0	1.2	0.9;
    80	1	0.021937664	0.007210252	0	0	0	0.9522	-0.7654	22	0	1.2	0.9;
    81	1	0	0	0	0	0	0.9522	-0.7654	22	0	1.2	0.9;
    82	1	0	0	0	0	0	0.9521	-0.7665	22	0	1.2	0.9;
    83	1	0	0	0	0	0	0.9518	-0.7714	22	0	1.2	0.9;
    84	1	0.026927092	0.008850127	0	0	0	0.9518	-0.7714	22	0	1.2	0.9;
    85	1	0	0	0	0	0	0.9516	-0.775	22	0	1.2	0.9;
    86	1	0	0	0	0	0	0.9514	-0.7781	22	0	1.2	0.9;
    87	1	0	0	0	0	0	0.9514	-0.7781	22	0	1.2	0.9;
    88	1	0	0	0	0	0	0.9514	-0.7781	22	0	1.2	0.9;
    89	1	0	0	0	0	0	0.9513	-0.7781	22	0	1.2	0.9;
    90	1	0.043781881	0.014389791	0	0	0	0.9513	-0.7782	22	0	1.2	0.9;
    91	1	0.153539557	0.050463846	0	0	0	0.9513	-0.7786	22	0	1.2	0.9;
    92	1	0.073773438	0.024247116	0	0	0	0.9514	-0.7781	22	0	1.2	0.9;
    93	1	0	0	0	0	0	0.9514	-0.7781	22	0	1.2	0.9;
    94	1	0	0	0	0	0	0.9513	-0.7795	22	0	1.2	0.9;
    95	1	0	0	0	0	0	0.9513	-0.7796	22	0	1.2	0.9;
    96	1	0.183788623	0.060405807	0	0	0	0.9512	-0.7791	22	0	1.2	0.9;
    97	1	0	0	0	0	0	0.9515	-0.7748	22	0	1.2	0.9;
    98	1	0	0	0	0	0	0.9515	-0.7748	22	0	1.2	0.9;
    99	1	0.082191692	0.027013943	0	0	0	0.9515	-0.7748	22	0	1.2	0.9;
    100	1	0	0	0	0	0	0.952	-0.766	22	0	1.2	0.9;
    101	1	0.186032156	0.061143189	0	0	0	0.952	-0.766	22	0	1.2	0.9;
    102	1	0	0	0	0	0	0.9527	-0.764	22	0	1.2	0.9;
    103	1	0.29551181	0.097125867	0	0	0	0.9527	-0.7641	22	0	1.2	0.9;
    104	1	0	0	0	0	0	0.9527	-0.7642	22	0	1.2	0.9;
    105	1	0.296369037	0.097407611	0	0	0	0.9527	-0.7642	22	0	1.2	0.9;
    106	1	0.202089304	0.066420691	0	0	0	0.9541	-0.7504	22	0	1.2	0.9;
    107	1	0	0	0	0	0	0.9533	-0.7629	22	0	1.2	0.9;
    108	1	0.111655223	0.036697722	0	0	0	0.9533	-0.763	22	0	1.2	0.9;
    109	1	0.046128009	0.015160893	0	0	0	0.9682	-0.5433	22	0	1.2	0.9;
    110	1	0	0	0	0	0	0.9681	-0.5441	22	0	1.2	0.9;
    111	1	0.276548514	0.0908932	0	0	0	0.9681	-0.5441	22	0	1.2	0.9;
    112	1	0	0	0	0	0	0.9683	-0.5433	22	0	1.2	0.9;
    113	1	0.00078442	0.000257815	0	0	0	0.9683	-0.5433	22	0	1.2	0.9;
    114	1	0.077797225	0.025569614	0	0	0	0.9682	-0.5441	22	0	1.2	0.9;
    115	1	0	0	0	0	0	0.9683	-0.5429	22	0	1.2	0.9;
    116	1	0	0	0	0	0	0.9659	-0.5773	22	0	1.2	0.9;
    117	1	0.121147488	0.039817545	0	0	0	0.9589	-0.6789	22	0	1.2	0.9;
    118	1	0.035388698	0.011631203	0	0	0	0.9683	-0.5429	22	0	1.2	0.9;
    119	1	0	0	0	0	0	0.9658	-0.5778	22	0	1.2	0.9;
    120	1	0.263253107	0.086523399	0	0	0	0.9657	-0.577	22	0	1.2	0.9;
    121	1	0.068540778	0.022527298	0	0	0	0.9658	-0.5781	22	0	1.2	0.9;
    122	1	0	0	0	0	0	0.9658	-0.5778	22	0	1.2	0.9;
    123	1	0	0	0	0	0	0.9658	-0.5778	22	0	1.2	0.9;
    124	1	0.153542804	0.050464913	0	0	0	0.9659	-0.5773	22	0	1.2	0.9;
]; 

%% generator data
%	bus	Pg	Qg	Qmax	Qmin	Vg	mBase	status	Pmax	Pmin	Pc1	Pc2	Qc1min	Qc1max	Qc2min	Qc2max	ramp_agc	ramp_10	ramp_30	ramp_q	apf
mpc.gen = [
	1	0	0	10	-10	1	100	1	10	0	0	0	0	0	0	0	0	0	0	0	0;
];

%% branch data
%	fbus	tbus	r	x	b	rateA	rateB	rateC	ratio	angle	status	angmin	angmax
mpc.branch = [
1	2	0.001661672	0.002392807	0	1.771887976	0	0	0	0	1	0;
2	3	0.001032562	0.00148689	0	1.771887976	0	0	0	0	1	0;
3	4	0.001901424	0.001673254	0	1.524204711	0	0	0	0	1	0;
4	5	0.000495963	0.000436448	0	1.524204711	0	0	0	0	1	0;
5	7	0.00369231	0.002317895	0	1.09361688	0	0	0	0	1	0;
7	9	0.002076683	0.001303664	0	1.09361688	0	0	0	0	1	0;
9	12	0.006355423	0.003989698	0	1.09361688	0	0	0	0	1	0;
12	26	0.005145026	0.003229856	0	1.09361688	0	0	0	0	1	0;
26	33	0.004864072	0.003053484	0	1.09361688	0	0	0	0	1	0;
33	37	0.003501872	0.002198345	0	1.09361688	0	0	0	0	1	0;
37	40	0.007340441	0.004608056	0	1.09361688	0	0	0	0	1	0;
40	42	0.008787848	0.005516684	0	1.09361688	0	0	0	0	1	0;
42	44	0.003728283	0.002340478	0	1.09361688	0	0	0	0	1	0;
44	45	0.0006449	0.000404845	0	1.09361688	0	0	0	0	1	0;
45	46	0.005135852	0.003224097	0	1.09361688	0	0	0	0	1	0;
46	47	0.008947076	0.005616642	0	1.09361688	0	0	0	0	1	0;
47	48	0.000915966	0.00057501	0	1.09361688	0	0	0	0	1	0;
48	67	0.003331125	0.002091157	0	1.09361688	0	0	0	0	1	0;
67	68	0.004408058	0.002767215	0	1.09361688	0	0	0	0	1	0;
68	69	0.005758556	0.003615008	0	1.09361688	0	0	0	0	1	0;
69	70	0.002972676	0.001866136	0	1.09361688	0	0	0	0	1	0;
70	71	0.001954428	0.001226917	0	1.09361688	0	0	0	0	1	0;
71	72	0.003215362	0.002018485	0	1.09361688	0	0	0	0	1	0;
72	73	4.28E-05	2.68E-05	0	1.124100974	0	0	0	0	1	0;
73	74	6.36E-05	3.98E-05	0	1.124100974	0	0	0	0	1	0;
74	75	0.003553641	0.001332615	0	0.914522826	0	0	0	0	1	0;
75	76	1.16E-05	1.16E-05	0	3.806701265	0	0	0	0	1	0;
76	77	3.87E-05	3.87E-05	0	3.806701265	0	0	0	0	1	0;
77	78	4.92E-05	4.92E-05	0	3.806701265	0	0	0	0	1	0;
78	79	0.005966736	0.002237526	0	0.914522826	0	0	0	0	1	0;
79	80	2.88E-05	1.80E-05	0	1.124100974	0	0	0	0	1	0;
80	81	3.78E-05	2.36E-05	0	1.124100974	0	0	0	0	1	0;
81	82	0.000747474	0.000467172	0	1.124100974	0	0	0	0	1	0;
82	83	0.004589931	0.002881388	0	1.09361688	0	0	0	0	1	0;
83	85	0.003602333	0.002261411	0	1.09361688	0	0	0	0	1	0;
85	86	0.003529099	0.002215437	0	1.09361688	0	0	0	0	1	0;
86	92	4.36E-05	4.36E-05	0	3.806701265	0	0	0	0	1	0;
92	93	4.20E-05	4.20E-05	0	3.806701265	0	0	0	0	1	0;
93	94	0.00212315	0.001958245	0	1.409889357	0	0	0	0	1	0;
94	95	0.000327931	0.000122974	0	0.914522826	0	0	0	0	1	0;
95	96	0.003594039	0.00078497	0	0.647787002	0	0	0	0	1	0;
4	6	0.000904929	0.000527143	0	1.181258651	0	0	0	0	1	0;
5	8	1.25E-05	7.75E-05	0	1.188879674	0	0	0	0	1	0;
7	10	3.55E-05	3.55E-05	0	3.806701265	0	0	0	0	1	0;
7	11	6.94E-05	6.94E-05	0	3.806701265	0	0	0	0	1	0;
9	13	0.001362185	0.00051082	0	0.914522826	0	0	0	0	1	0;
13	14	0.00305727	0.001146476	0	0.914522826	0	0	0	0	1	0;
12	16	0.00091722	0.000422756	0	0.895470268	0	0	0	0	1	0;
16	18	0.007312869	0.003370574	0	0.895470268	0	0	0	0	1	0;
18	19	0.008006715	0.003690374	0	0.895470268	0	0	0	0	1	0;
19	21	0.007656548	0.002508385	0	0.762102355	0	0	0	0	1	0;
21	22	1.54E-05	9.55E-05	0	1.188879674	0	0	0	0	1	0;
22	23	0.004277245	0.000278138	0	0.308651454	0	0	0	0	1	0;
23	24	0.011070606	0.000719892	0	0.308651454	0	0	0	0	1	0;
24	25	5.65E-05	5.65E-05	0	3.806701265	0	0	0	0	1	0;
16	17	2.93E-05	1.83E-05	0	1.124100974	0	0	0	0	1	0;
19	20	3.55E-05	3.55E-05	0	3.806701265	0	0	0	0	1	0;
26	27	0.000325116	0.000468167	0	1.771887976	0	0	0	0	1	0;
27	28	4.84E-06	4.84E-06	0	3.806701265	0	0	0	0	1	0;
28	29	3.57E-05	3.57E-05	0	3.806701265	0	0	0	0	1	0;
29	30	0.000547523	0.000119584	0	0.647787002	0	0	0	0	1	0;
30	31	0.000306296	6.69E-05	0	0.647787002	0	0	0	0	1	0;
31	32	0.000729968	0.001051154	0	1.771887976	0	0	0	0	1	0;
33	34	0.007399315	0.003410418	0	0.895470268	0	0	0	0	1	0;
34	35	0.00390229	0.001463359	0	0.914522826	0	0	0	0	1	0;
35	36	7.26E-05	7.26E-05	0	3.806701265	0	0	0	0	1	0;
37	38	0.00296555	0.001366851	0	0.895470268	0	0	0	0	1	0;
38	39	5.15E-05	3.22E-05	0	1.124100974	0	0	0	0	1	0;
40	41	0.006356329	0.001388278	0	0.647787002	0	0	0	0	1	0;
42	109	0.003536462	0.001629991	0	0.895470268	0	0	0	0	1	0;
109	110	0.00389529	0.001795378	0	0.895470268	0	0	0	0	1	0;
110	111	2.97E-05	1.86E-05	0	1.124100974	0	0	0	0	1	0;
42	43	0.000522201	0.000431498	0	0.933575385	0	0	0	0	1	0;
43	115	0.003097676	0.002559632	0	0.933575385	0	0	0	0	1	0;
115	118	4.84E-05	4.84E-05	0	3.806701265	0	0	0	0	1	0;
43	112	0.003137983	0.002592938	0	0.933575385	0	0	0	0	1	0;
112	113	4.85E-05	4.85E-05	0	3.806701265	0	0	0	0	1	0;
112	114	0.012978601	0.005981966	0	0.895470268	0	0	0	0	1	0;
45	116	0.001969871	0.000907933	0	0.895470268	0	0	0	0	1	0;
116	119	0.0018096	0.000834062	0	0.895470268	0	0	0	0	1	0;
119	122	0.001577958	0.00034464	0	0.647787002	0	0	0	0	1	0;
122	123	5.91E-05	3.70E-05	0	1.124100974	0	0	0	0	1	0;
119	121	0.002767996	0.001729997	0	1.124100974	0	0	0	0	1	0;
116	124	3.55E-05	3.55E-05	0	3.806701265	0	0	0	0	1	0;
119	120	0.004014763	0.000876859	0	0.647787002	0	0	0	0	1	0;
47	49	0.002404525	0.001502828	0	1.124100974	0	0	0	0	1	0;
49	52	5.00E-05	5.00E-05	0	3.806701265	0	0	0	0	1	0;
52	53	0.006660138	0.002181948	0	0.762102355	0	0	0	0	1	0;
53	54	0.000813464	0.001171388	0	1.771887976	0	0	0	0	1	0;
54	55	0.000679344	0.000978255	0	1.771887976	0	0	0	0	1	0;
55	56	4.52E-05	4.52E-05	0	3.806701265	0	0	0	0	1	0;
56	57	0.000649836	0.000935764	0	1.771887976	0	0	0	0	1	0;
57	58	0.00084086	0.001210839	0	1.771887976	0	0	0	0	1	0;
58	59	0.000577227	0.000189107	0	0.762102355	0	0	0	0	1	0;
59	60	0.006187716	0.001351451	0	0.647787002	0	0	0	0	1	0;
60	61	0.000616922	0.000569006	0	1.409889357	0	0	0	0	1	0;
61	62	3.55E-05	3.55E-05	0	3.806701265	0	0	0	0	1	0;
49	50	0.006017026	0.001314171	0	0.647787002	0	0	0	0	1	0;
50	51	3.71E-05	3.71E-05	0	3.806701265	0	0	0	0	1	0;
59	117	3.55E-05	3.55E-05	0	3.806701265	0	0	0	0	1	0;
48	63	0.021523491	0.006366164	0	0.438208854	0	0	0	0	1	0;
63	65	0.01114168	0.005135311	0	0.895470268	0	0	0	0	1	0;
65	66	3.91E-05	3.91E-05	0	3.806701265	0	0	0	0	1	0;
63	64	3.17E-05	1.98E-05	0	1.124100974	0	0	0	0	1	0;
71	106	0.001124919	0.000245692	0	0.647787002	0	0	0	0	1	0;
72	107	0.003319835	0.002084069	0	1.09361688	0	0	0	0	1	0;
107	108	3.15E-05	1.97E-05	0	1.124100974	0	0	0	0	1	0;
76	102	4.04E-05	4.04E-05	0	3.806701265	0	0	0	0	1	0;
102	103	0.000601656	0.000225621	0	0.914522826	0	0	0	0	1	0;
103	104	0.001108432	0.000415662	0	0.914522826	0	0	0	0	1	0;
104	105	4.68E-05	4.68E-05	0	3.806701265	0	0	0	0	1	0;
82	100	0.003891899	0.000850025	0	0.647787002	0	0	0	0	1	0;
100	101	5.17E-05	5.17E-05	0	3.806701265	0	0	0	0	1	0;
83	84	4.56E-05	4.56E-05	0	3.806701265	0	0	0	0	1	0;
85	97	0.008752581	0.002374613	0	0.323893501	0	0	0	0	1	0;
97	98	0.000548522	0.000342826	0	1.124100974	0	0	0	0	1	0;
98	99	4.76E-05	4.76E-05	0	3.806701265	0	0	0	0	1	0;
86	89	0.000841252	0.000525783	0	1.124100974	0	0	0	0	1	0;
89	90	0.000436025	0.000272516	0	1.124100974	0	0	0	0	1	0;
86	87	0.002969154	0.001863925	0	1.09361688	0	0	0	0	1	0;
87	88	8.15E-05	5.09E-05	0	1.124100974	0	0	0	0	1	0;
86	91	0.000490918	0.000706922	0	1.771887976	0	0	0	0	1	0;
9	15	4.84E-05	4.84E-05	0	3.806701265	0	0	0	0	1	0;
];


